Circuit: * Z:\home\muffin\Documents\fall-2011\6.331\lab1\transimpedance.asc

WARNING: Less than two connections to node NC_01.  This node is used by R1.
WARNING: Less than two connections to node NC_02.  This node is used by R2.
Direct Newton iteration for .op point succeeded.

Date: Sat Sep 24 12:17:43 2011
Total elapsed time: 2.911 seconds.

tnom = 27
temp = 27
method = modified trap
totiter = 67338
traniter = 67331
tranpoints = 19135
accept = 13221
rejected = 5914
matrix size = 25
fillins = 4
solver = Normal
Matrix Compiler1: 2.05 KB object code size  4.4/2.8/[2.1]
Matrix Compiler2: off  [2.5]/3.1/4.9


