Circuit: * Z:\home\muffin\Documents\fall-2011\6.331\lab2\buck-boost.asc

Direct Newton iteration for .op point succeeded.

Date: Sat Nov 19 18:18:32 2011
Total elapsed time: 17.439 seconds.

tnom = 27
temp = 27
method = modified trap
totiter = 1263251
traniter = 1263224
tranpoints = 459444
accept = 360161
rejected = 99283
matrix size = 21
fillins = 1
solver = Normal
Matrix Compiler1: 1.37 KB object code size  4.9/4.3/[2.9]
Matrix Compiler2: off  [3.3]/4.6/8.8


