Circuit: * Z:\home\muffin\Documents\fall-2011\6.331\lab2\buck-boost.asc

Direct Newton iteration for .op point succeeded.

Date: Sat Dec 03 15:47:59 2011
Total elapsed time: 25.402 seconds.

tnom = 27
temp = 27
method = modified trap
totiter = 1961070
traniter = 1961064
tranpoints = 515181
accept = 380130
rejected = 135051
matrix size = 17
fillins = 0
solver = Normal
Matrix Compiler1: 1.01 KB object code size  4.0/3.5/[2.3]
Matrix Compiler2: off  [3.1]/3.8/3.9


